data/shbh_evnc_2/p13u/p13uhs19_1247/DSSfiles/Lines.dss
New Line.sb2_p13uhs19_1247_68 Units=km Length=0.003023488 bus1=sb2_p13uhs19_1247_bus_2_5.1.2.3 bus2=p13udt22083-p13uhs19_1247x.1.2.3 switch=n enabled=y phases=3 Linecode=3P_OH_Code_3

New Line.sb2_p13uhs19_1247_69 Units=km Length=0.003023488 bus1=sb2_p13uhs19_1247_bus_2_6.1.2.3 bus2=p13udt8521-p13uhs19_1247x.1.2.3 switch=n enabled=y phases=3 Linecode=3P_OH_Code_3

New Line.sb2_p13uhs19_1247_67 Units=km Length=0.003023488 bus1=sb2_p13uhs19_1247_bus_2_4.1.2.3 bus2=p13udt22084-p13uhs19_1247x.1.2.3 switch=n enabled=y phases=3 Linecode=3P_OH_Code_3

New Line.sb2_p13uhs19_1247_364 Units=km Length=0.001 bus1=sb2_p13uhs19_1247_node_2_18.1.2.3 bus2=sb2_p13uhs19_1247_node_2_10.1.2.3 switch=y enabled=y phases=3 Linecode=BREAKER_69KV_3

New Line.sb2_p13uhs19_1247_58 Units=km Length=0.001 bus1=sb2_p13uhs19_1247_node_2_13.1.2.3 bus2=sb2_p13uhs19_1247_node_2_16.1.2.3 switch=y enabled=y phases=3 Linecode=BREAKER_13KV_3

New Line.sb2_p13uhs19_1247_362 Units=km Length=0.001 bus1=sb2_p13uhs19_1247_bus_2_2.1.2.3 bus2=sb2_p13uhs19_1247_node_2_11.1.2.3 switch=y enabled=y phases=3 Linecode=BREAKER_13KV_3

New Line.sb2_p13uhs19_1247_60 Units=km Length=0.001 bus1=sb2_p13uhs19_1247_node_2_15.1.2.3 bus2=sb2_p13uhs19_1247_bus_2_4.1.2.3 switch=y enabled=y phases=3 Linecode=DISCONNECT_SWITCH_13KV_3

New Line.sb2_p13uhs19_1247_356 Units=km Length=0.001 bus1=sb2_p13uhs19_1247_node_2_12.1.2.3 bus2=sb2_p13uhs19_1247_bus_2_2.1.2.3 switch=y enabled=y phases=3 Linecode=DISCONNECT_SWITCH_13KV_3

New Line.sb2_p13uhs19_1247_62 Units=km Length=0.001 bus1=sb2_p13uhs19_1247_node_2_17.1.2.3 bus2=sb2_p13uhs19_1247_bus_2_6.1.2.3 switch=y enabled=y phases=3 Linecode=DISCONNECT_SWITCH_13KV_3

New Line.sb2_p13uhs19_1247_44 Units=km Length=0.001 bus1=sb2_p13uhs19_1247_node_2_6.1.2.3 bus2=sb2_p13uhs19_1247_bus_2_1.1.2.3 switch=y enabled=y phases=3 Linecode=DISCONNECT_SWITCH_69KV_3

New Line.sb2_p13uhs19_1247_64 Units=km Length=0.001 bus1=sb2_p13uhs19_1247_bus_2_5.1.2.3 bus2=sb2_p13uhs19_1247_bus_2_3.1.2.3 switch=y enabled=n phases=3 Linecode=DISCONNECT_SWITCH_13KV_3

New Line.sb2_p13uhs19_1247_66 Units=km Length=0.001 bus1=sb2_p13uhs19_1247_bus_2_6.1.2.3 bus2=sb2_p13uhs19_1247_bus_2_3.1.2.3 switch=y enabled=n phases=3 Linecode=DISCONNECT_SWITCH_13KV_3

New Line.sb2_p13uhs19_1247_43 Units=km Length=0.001 bus1=sb2_p13uhs19_1247_node_2_5.1.2.3 bus2=sb2_p13uhs19_1247_node_2_6.1.2.3 switch=y enabled=y phases=3 Linecode=BREAKER_69KV_3

New Line.sb2_p13uhs19_1247_355 Units=km Length=0.001 bus1=sb2_p13uhs19_1247_node_2_13.1.2.3 bus2=sb2_p13uhs19_1247_bus_2_2.1.2.3 switch=y enabled=y phases=3 Linecode=DISCONNECT_SWITCH_13KV_3

New Line.sb2_p13uhs19_1247_57 Units=km Length=0.001 bus1=sb2_p13uhs19_1247_node_2_12.1.2.3 bus2=sb2_p13uhs19_1247_node_2_15.1.2.3 switch=y enabled=y phases=3 Linecode=BREAKER_13KV_3

New Line.sb2_p13uhs19_1247_61 Units=km Length=0.001 bus1=sb2_p13uhs19_1247_node_2_16.1.2.3 bus2=sb2_p13uhs19_1247_bus_2_5.1.2.3 switch=y enabled=y phases=3 Linecode=DISCONNECT_SWITCH_13KV_3

New Line.sb2_p13uhs19_1247_357 Units=km Length=0.001 bus1=sb2_p13uhs19_1247_node_2_14.1.2.3 bus2=sb2_p13uhs19_1247_bus_2_2.1.2.3 switch=y enabled=y phases=3 Linecode=DISCONNECT_SWITCH_13KV_3

New Line.sb2_p13uhs19_1247_59 Units=km Length=0.001 bus1=sb2_p13uhs19_1247_node_2_14.1.2.3 bus2=sb2_p13uhs19_1247_node_2_17.1.2.3 switch=y enabled=y phases=3 Linecode=BREAKER_13KV_3

New Line.sb2_p13uhs19_1247_351 Units=km Length=0.001 bus1=sb2_p13uhs19_1247_node_2_5.1.2.3 bus2=p13uhs19_69.1.2.3 switch=y enabled=y phases=3 Linecode=DISCONNECT_SWITCH_69KV_3

New Line.sb2_p13uhs19_1247_65 Units=km Length=0.001 bus1=sb2_p13uhs19_1247_bus_2_4.1.2.3 bus2=sb2_p13uhs19_1247_bus_2_3.1.2.3 switch=y enabled=n phases=3 Linecode=DISCONNECT_SWITCH_13KV_3

New Line.sb2_p13uhs19_1247_353 Units=km Length=0.001 bus1=sb2_p13uhs19_1247_node_2_18.1.2.3 bus2=sb2_p13uhs19_1247_bus_2_1.1.2.3 switch=y enabled=y phases=3 Linecode=DISCONNECT_SWITCH_69KV_3

